5.132.128.0/24 internex.SI 22June2016:5.132.128.0-5.132.128.255
31.15.128.0/17 Telemach.SI 30Sep2016:31.15.128.0-31.15.255.255
46.151.232.0-46.151.239.255 tele.SI 14Nov2022:46.151.232.0-46.151.239.255
46.248.64.0-46.248.91.255 telesat.SI:46.248.64.0-46.248.95.255
77.94.128.0-77.94.159.255 stelkom.SI 26June2024:77.94.128.0-77.94.159.255
78.153.32.0-78.153.63.255 telemach.SI:78.153.32.0-78.153.63.255
82.192.36.128-255 TELEMACH .SI:82.192.36.128-82.192.36.255
84.52.128.0-84.52.191.255 telemach.SI:84.52.128.0-84.52.191.255
84.255.192.0-84.255.255.255 t-2.net.SI:84.255.192.0-84.255.255.255
85.10.0.0-85.10.47.255 medinet.SI 26Feb2016:85.10.0.0-85.10.47.255
86.58.0.0-86.58.127.255 triera internet.SI:86.58.0.0-86.58.127.255
86.61.0.0-86.61.127.255 si telekom.SI:86.61.0.0-86.61.127.255
88.200.0.0-88.200.127.255 Solski center Nova Gorica.SI 14Nov2022:88.200.0.0-88.200.127.255
89.142.0.0-89.142.255.255 siol.SI 28Feb2024:89.142.0.0-89.142.255.255
89.143.192.0-89.143.255.255 telekom slovenije.SI 07Feb2024:89.143.192.0-89.143.255.255
89.212.0.0/16 t-2.SI 01June2015:89.212.0.0-89.212.255.255
89.233.112.0-89.233.127.255 t-r.SI 22Aug2017:89.233.112.0-89.233.127.255
91.220.213.0-91.220.213.255 Linea Directa.SI 06June2024:91.220.213.0-91.220.213.255
91.240.52.0-91.240.55.255 stelkom.SI 16April2024:91.240.52.0-91.240.55.255
92.37.0.0-92.37.127.255 a1.SI 06Nov2023:92.37.0.0-92.37.127.255
92.53.128.0-92.53.191.255 ario.SI 09June2016:92.53.128.0-92.53.191.255
94.103.181.0-94.103.181.255 adria-mobil.SI 30May2024:94.103.181.0-94.103.181.255
95.176.128.0-95.176.191.255 telekom slovenije.SI:95.176.128.0-95.176.191.255
109.127.192.0-109.127.255.255 arnes/osnovna.SI:109.127.192.0-109.127.255.255
146.212.0.0-146.212.255.255 a1 slovenija.SI 04June2024:146.212.0.0-146.212.255.255
158.41.0.0-158.41.15.255 Coneris.SI 06June2024:158.41.0.0-158.41.15.255
158.41.24.0-158.41.31.255 D1, informacijske tehnologije.SI 06June2024:158.41.24.0-158.41.31.255
164.8.0.0/16 maribor university.SI:164.8.0.0-164.8.255.255
178.79.64.0-178.79.127.255 telemach.SI 17Nov2023:178.79.64.0-178.79.127.255
178.172.60.0-178.172.61.255 arnes.SI:178.172.60.0-178.172.61.255
185.92.228.0-185.92.228.255 siel.SI 14May2024:185.92.228.0-185.92.228.255
188.199.200.0-188.199.207.255 mobitel.SI:188.199.200.0-188.199.207.255
188.230.128.0-188.230.255.255 t-2.SI:188.230.128.0-188.230.255.255
193.2.4.0/24 ijs.SI:193.2.4.0-193.2.4.255
193.35.111.0-193.35.111.255 stelkom.SI 18June2024:193.35.111.0-193.35.111.255
193.77.0.0/16 si telekom.SI:193.77.0.0-193.77.255.255
193.218.94.0-193.218.94.255 alpina.SI 18April2024:193.218.94.0-193.218.94.255
195.210.192.0-195.210.255.255 siol.SI:195.210.192.0-195.210.255.255
212.13.239.0/24 softnet.SI:212.13.239.0-212.13.239.255
212.18.32.0-212.18.43.255 amis.SI:212.18.32.0-212.18.43.255
212.30.64.0-212.30.95.255 siol.SI:212.30.64.0-212.30.95.255
212.72.115.0-212.72.115.127 netinet.SI:212.72.115.0-212.72.115.127
212.85.160.0-212.85.191.255 telemach.SI 21Sep2017:212.85.160.0-212.85.191.255
212.103.128.0/24 softnet.SI:212.103.128.0-212.103.128.255
212.235.128.0-212.235.255.255 arnes.SI 10Apr2017:212.235.128.0-212.235.255.255
213.143.64.0-213.143.95.255 telemach.SI 17Nov2023:213.143.64.0-213.143.95.255
213.157.224.0-213.157.255.255 A1 Slovenija telekomunikacijske.SI 17July2024:213.157.224.0-213.157.255.255
213.229.240.0-213.229.249.255 mobitel.SI:213.229.240.0-213.229.249.255
217.199.128.0-217.199.143.255 softnet.SI 10June2024:217.199.128.0-217.199.143.255
